
##########################################################################
#               Crystallographic Information Format file
#               Produced by PyCifRW module
#
#  This is a CIF file.  CIF has been adopted by the International
#  Union of Crystallography as the standard for data archiving and
#  transmission.
#
#  For information on this file format, follow the CIF links at
#  http://www.iucr.org
##########################################################################

data_0

loop_
  _atom_site_label
  _atom_site_fract_x
  _atom_site_fract_y
  _atom_site_fract_z
  _atom_site_type_symbol
         Mg1       0.2199123693940587  0.1132935490230725  0.4999996412323428  Mg       
         O1        0.10522464147863078           0.22334893403768366           0.49999998185600003          O        
         Mg2       0.5667884578732227  0.11977234239670331           0.49999923632122856          Mg       
         Mg3       0.8796928378992236  0.11986747848800199           0.5000000154512    Mg       
         Mg4       0.2196600260415058  0.4461153449911273  0.49999998347377145           Mg       
         O2        0.10608886072584044           0.5551584641703954  0.5000000089347714 O        
         Mg5       0.5537972190502266  0.4447359576425277  0.5000000763519142  Mg       
         O3        0.44276328284960204           0.55711766624794    0.4999999850915428 O        
         Mg6       0.8802937454107286  0.4335266820170457  0.5000002072400571  Mg       
         O4        0.7769806778487344  0.5556291078007619  0.49999999116954286           O        
         Mg7       0.22013173571884637           0.7800257545099109  0.5000000034766857 Mg       
         O5        0.10883379268500898           0.8909706752590719  0.49999997837857135          O        
         Mg8       0.5537382787739976  0.7802403140454486  0.4999999997724286  Mg       
         O6        0.4489803287595454  0.8937659052610437  0.4999999584815143  O        
         Mg9       0.8866974625765894  0.7801945575468987  0.49999999305945714           Mg       
         O7        0.7763829597076258  0.8944571082360784  0.5000000012541428  O        
         O8        0.4443917718804214  0.22219710174477933           0.5000028774823143 O        
         O9        0.777777777391635   0.22222222144993675           0.5       O        
         O10       0.44444444405830175           0.22222222144993675           0.5      O
_cell_angle_alpha                       90.0
_cell_angle_beta                        90.0
_cell_angle_gamma                       119.99999998958452
_cell_length_a                          9.967821
_cell_length_b                          9.96782100313847
_cell_length_c                          35.0
loop_
  _symmetry_equiv_pos_as_xyz
         'x, y, z' 
_symmetry_Int_Tables_number             1
_symmetry_space_group_name_H-M          'P 1'
_symmetry_space_group_name_Hall         'P 1'
_cell_formula_units_Z                   1
_chemical_formula_sum                   'Mg9 O10'